132
NON_ORTHO 8.200 0.000 0.000 0.000 16.400 0.000 0.000 0.000 8.200 1.93247504282E+00 1.82575021769E+00 6.71003920844E-01 3.14075035996E-01 4.91665941231E-01 1.64582993123E-02 -475217.8952842238
  O         8.0607702851        7.5755482091        7.3392147215 0.0020282739 -0.0099671479 0.0070122494
  H         7.6481153959        6.7937928568        7.7380011877 -0.0007617605 -0.0065317603 0.0033981726
  H         7.3314489970        8.0837498540        6.9230214305 -0.0091930422 0.0038526929 -0.0048379021
  O         5.5448184150       -5.7062055950        3.8441109632 0.0868141931 -0.0477088663 0.0702123075
  H         4.9721990494       -5.8195480725        3.1715579745 -0.0693762380 -0.0075057755 -0.0818094334
  H         5.4218631386       -4.8740062651        4.2663917491 -0.0086782472 0.0553068499 0.0155775131
  O        -0.0056884179        5.0349458768       10.4377042794 -0.0339572177 -0.0158576607 -0.0060972259
  H         3.7254059321       -7.6240879400      -10.2206073509 0.0192840980 -0.0095660493 -0.0059432444
  H         0.0559165028        5.8328785213       11.0213756888 -0.0118942371 0.0047797512 -0.0018859000
  O         2.6194100949        6.6556147199        8.4933682894 0.0023586809 -0.0866851833 -0.0120147098
  H         2.1549777839        5.8575581218        8.0148242795 0.0124758174 0.0369907478 0.0104468597
  H         2.2813710092        7.4991043828        8.2417463529 -0.0161207676 0.0362773696 -0.0219594355
  O        10.4603614284        5.7520566159        5.5475210714 -0.0005411044 0.0085793296 -0.0380489529
  H        11.4348690222        5.8383722391        5.3371756651 -0.0147355778 0.0014011784 0.0004446390
  H         9.9380092930        5.8186640279        4.6318068360 0.0263548500 -0.0052406241 0.0558948463
  O         8.6411260329        0.2739397448        0.1675923132 -0.0602050194 0.0477549573 0.0176633575
  H         8.8966804138        1.0328562148        0.8411701739 0.0005732656 -0.0341116636 -0.0088469248
  H         9.3334050314       -0.1780462814       -0.2801471056 0.0376643459 -0.0262417366 -0.0178472032
  O         5.3159276985        1.8814867227        7.7668607763 -0.0304445598 0.0094219993 0.0016873897
  H         5.3739609910        2.8815189057        7.8320546524 0.0075146071 -0.0070309913 -0.0117076129
  H         6.1327685593        1.3991341296        7.8978528257 0.0218692699 -0.0043791785 0.0080011007
  O         0.8474551452        9.5460030818       14.4979126582 0.0215043477 -0.0410686074 -0.0263361574
  H         1.0507238920        8.5674421437       14.7972858770 -0.0158513925 0.0395258855 -0.0093576074
  H         0.3567038859        9.9254156732       15.2288485775 -0.0113525368 0.0092323739 0.0223852906
  O        -5.2059030119        1.0024213808        9.4713129930 0.0521425281 0.0202209318 -0.0275487455
  H        -5.1803418693        0.0598534899        9.2750718078 -0.0086120308 -0.0207596362 -0.0029449391
  H        -4.2943487893        1.2289216751        8.9942272190 -0.0303888423 -0.0028550376 0.0244197315
  O         2.2719748282       10.4833030968        1.6398754147 -0.0521098562 0.0201462194 -0.0025000630
  H         1.5251167142       10.2838370099        2.2951682681 0.0069639229 -0.0092513375 -0.0064891256
  H         1.7802846170       11.2349230860        1.1129713481 0.0326863185 -0.0266521260 0.0122097984
  O        -2.5813835274       12.7652971067        2.0679228642 -0.0036725881 0.0212113466 0.0089692428
  H        -2.8579849042       13.7513528736        2.0507356046 0.0102646821 -0.0424530436 -0.0194897574
  H        -2.4673430217       12.2282871591        1.2272937269 -0.0132170067 0.0298045528 0.0074810732
  O         1.7546322227       -0.8966218377       12.5550984926 -0.0015310481 0.0140323092 -0.0315385223
  H         1.7175557978       -1.1013512839       13.4861038181 0.0046472824 0.0077073101 0.0468720489
  H         1.3244357226       -1.7401206219       12.3873358420 -0.0120242261 -0.0280665684 -0.0296039538
  O        -1.8009820260        3.2635107422        4.5003685330 -0.0175854055 -0.0217585154 0.0149170378
  H        -1.2542747377        3.8746085549        4.0118609609 0.0223410203 0.0124666579 -0.0108362854
  H        -0.9698692486        4.6725973982       10.4697929439 0.0380448941 0.0207367287 -0.0001934648
  O        -1.0876134602       -1.1055606861       -4.6113690721 -0.0230896419 0.0175024008 -0.0019836067
  H        -5.7203504148        7.7067565362       10.9065170547 0.0096258776 -0.0107914643 -0.0009934464
  H        -0.4178295297       -0.6072823739       -4.0810978351 -0.0052847687 0.0024173112 -0.0043426481
  O         5.3415685712       -3.0569229077        4.6701816027 -0.0615175294 -0.0280489187 0.0044031038
  H         5.0708639144       -2.7429697605        3.7866062989 -0.0175395905 0.0003578062 0.0017596319
  H         6.2113526527       -2.7835215900        4.5694954680 0.0851688104 0.0173139947 0.0036123635
  O         8.5305248522       10.3934618139       -4.7016520237 0.0204456460 -0.0068684372 0.0226723917
  H         7.6133217268       10.0691770422       -4.8537980182 0.0046269932 -0.0036188555 0.0069153307
  H         8.9421473859        9.9552895168       -3.8566654951 -0.0283471366 0.0120142071 -0.0197981724
  O        -0.2781133763        7.8221957159        3.3169549567 -0.0379670470 -0.0182385852 0.0370349058
  H        -1.3062612104        8.0113664184        3.1922952628 0.0416981057 0.0011193302 -0.0139938802
  H        -0.3467217820        7.7392125248        4.3147403014 0.0170968314 -0.0001151215 -0.0097757881
  O         2.8470578485        2.1767442032       12.4494582213 0.0105599631 -0.0697900538 0.0047073067
  H         3.6867406136        1.8346528283       12.0237534749 -0.0112804620 0.0014223071 -0.0015288704
  H         2.9846857067        3.0952755216       12.3861614622 -0.0012697236 0.0611078445 -0.0067460331
  O        -2.1963909412        8.8115145509       -2.5260387574 0.0025533044 -0.0208681812 -0.0729692284
  H        -2.2801121243        8.0780308419       -3.2950371721 -0.0019207680 0.0258649719 0.0497297447
  H        -2.1374922092        9.5867019901       -3.2450113453 -0.0096638054 -0.0132727712 0.0291488838
  O         3.1484232324        6.9739897671        2.5998818085 -0.0070196859 0.0202595401 0.0163417226
  H         2.9787337494        6.5917353505        1.6191140029 -0.0045609434 0.0241169378 0.0105605917
  H        -1.1231614303        2.8657429448        5.1398253480 -0.0124916377 -0.0033855462 -0.0069707326
  O         3.3502870490       -7.3055118397       -9.3890427168 0.0774305228 -0.0776368387 0.0525630384
  H        -1.9059724373       -0.4937403283      -12.9164765193 0.0329562698 -0.0187076946 0.0102714363
  H         2.7810890272       -6.7048255834       -9.7131468484 -0.0879896865 0.0924277894 -0.0373577175
  O        10.3968909220        3.6543947176        8.0720081258 0.0630075241 0.0208166674 0.0144034872
  H        11.0385042515        3.0750216781        8.5809397505 -0.0126036495 0.0088957212 -0.0084576691
  H         9.6229077565        3.1400681485        8.0761959627 -0.0447277261 -0.0294076989 -0.0076211788
  O         2.2703326537       11.6803460511        6.0805719936 0.1115196313 -0.0156579193 0.0480973903
  H         1.4246119160       11.6636191299        5.7902514260 -0.1023115500 0.0095227364 -0.0356579928
  H         2.7687402129       12.3786847656        5.6547206154 0.0025327399 0.0165791026 -0.0131097137
  O         8.3039480739       13.6259011099        1.0709079033 -0.0066099022 -0.0590960883 -0.0373916458
  H         8.1844923682       14.3930808451        1.5675867865 -0.0087975789 0.0572839821 0.0390202737
  H         9.2605883464       13.5505347312        0.9057121611 0.0102677262 0.0006903832 -0.0028766472
  O         5.9989445432        8.3669767768       10.1565070901 -0.0209995834 -0.0099307713 -0.0141299572
  H        -1.6364081823       10.5800685674       -7.4994074362 -0.0145879286 -0.0132758058 -0.0028066957
  H         5.2181777911        8.7008036227        9.6407704894 0.0043430594 0.0053919296 0.0065463776
  O        -5.4729662885       12.9914436978        8.6307215046 0.0632295737 -0.0129808787 -0.0060883167
  H        -4.6878228016       12.6365737790        8.0100673371 -0.0466085373 0.0203569360 0.0196367308
  H        -4.8555486366       13.2187277762        9.4000023990 -0.0200068274 -0.0028860241 -0.0100885624
  O         5.0187154004       22.5084873008       12.5922894994 0.0038822143 -0.0109229151 -0.0653686888
  H         5.4290522552       21.8515684846       11.8898658215 -0.0147560411 0.0242788404 0.0373516944
  H         4.4394484727       23.0153166968       11.8524844699 0.0103304877 -0.0037147299 0.0265950322
  O         1.4684943785       12.7414454846       -4.7877525457 -0.0416144314 -0.0140582230 -0.0290659878
  H         0.5747963082       12.5123011353       -5.2803492137 0.0214169718 0.0406397604 0.0202117514
  H         1.5917231075       11.7701099308       -4.8840779695 0.0280073692 -0.0006616140 0.0169226293
  O         5.8923178456       15.8984061342        0.9406519516 -0.0008207812 0.0091908016 -0.0015654098
  H         6.7297940269       15.7408268996        0.4427550709 0.0028466589 -0.0094054850 0.0052487316
  H         5.6198788467       15.0944236793        1.4420892097 0.0095275780 0.0080329975 -0.0147208859
  O         9.8730018256       14.9886625939        6.9569182250 0.0220777817 0.0726829409 -0.0404056591
  H        10.7904520501       15.3629858784        6.6613751399 -0.0195394049 -0.0112274732 0.0170300842
  H        10.0872271007       14.1359814635        7.2528313180 0.0153676542 -0.0623449414 0.0239648005
  O        -0.5912673956       12.4905087884       -9.8616989792 -0.0125643281 -0.0203726706 -0.0135746548
  H        14.1250488078        7.3920322130       10.0235775232 -0.0024252853 0.0005407053 -0.0049687571
  H        -0.7138589712       12.9805200183       -9.0161575794 -0.0001557018 -0.0068084228 0.0032032364
  O         7.4929271546       20.8048018954        7.7408969802 -0.0026597334 -0.0226182229 0.0141506196
  H         7.5576776260       19.8013142497        7.8113289966 -0.0032929399 0.0233699273 -0.0058614703
  H         6.7947142487       21.0350887464        8.4209537088 0.0102618280 -0.0029596618 -0.0130243517
  O         0.6771907995       18.1594634396       10.3196787874 -0.0004977051 0.0355206594 0.0042646652
  H         0.9138748327       19.0267204395        9.8867668217 -0.0074089522 -0.0048359602 0.0133337252
  H         1.5221121963       18.0400846150       10.8280855707 -0.0006630050 -0.0065137657 0.0041606138
  O        10.7196416979        4.5176947953       11.1754629811 0.0003874793 -0.0384644263 -0.0161756469
  H        10.0067781211        4.7735629581       10.5295059853 0.0016964339 -0.0037421975 0.0083163771
  H        11.0602554817        5.3325719354       11.5382717725 -0.0020703490 0.0302830115 0.0074012148
  O        -0.0853874412        1.7245227735        5.8191393066 0.0022761565 0.0017982540 0.0031261849
  H         0.1931474935        1.0539944149        6.5055256662 -0.0005166410 0.0041772003 0.0007901447
  H         0.6987656963        1.9438584581        5.2674517291 0.0056791299 -0.0065281676 0.0028882086
  O        -3.5101048942       14.3222304795       -1.2119315464 0.0078124774 0.0299852236 -0.0213205423
  H        -3.7687416622       15.3100197422       -1.2839529743 0.0037096827 -0.0299713986 0.0136819545
  H        -3.0698066755       14.3702287857       -2.1346615789 -0.0116156812 -0.0241039510 0.0207394096
  O         5.0404400030        4.3790720886        6.9030589470 0.0394781600 0.0210585055 0.0096791174
  H         4.2416677442        4.0605938299        6.5184130436 -0.0368465185 -0.0096164278 -0.0225875813
  H         5.6719259288        4.5758849009        6.1350804588 -0.0221524116 -0.0121009449 0.0168145753
  O        -2.8267739620       17.8571072456       -5.6034550982 -0.0493574755 -0.0076098174 -0.0150173661
  H        -2.2170930379       17.2957071770       -6.0790380832 0.0079020304 -0.0315752466 -0.0334366488
  H        -2.1987526870       18.2418432219       -5.0522604182 0.0412577800 0.0465002643 0.0583078419
  O         4.1752274748       15.1491670742        3.0127206398 -0.0021002129 0.0060706392 -0.0152549781
  H         4.0838831801       16.1182200875        2.8737314592 0.0127992220 0.0080607344 -0.0031146352
  H         3.2359865640       14.9974635182        3.2353370708 -0.0132025630 -0.0118520919 0.0142177417
  O         4.9238265020        5.3349872469        9.8541914709 -0.0093957058 -0.0074299604 -0.0245934229
  H        -1.0965029300       11.6158155325       -1.5645616447 0.0150257003 0.0321505953 0.0052336878
  H         4.3616817246        5.4149817078        8.9949632768 0.0229910758 -0.0017427399 0.0251842301
  O        16.2726287658       21.6164644953        5.0894705597 -0.0559478967 0.0186639066 -0.0122040257
  H        15.9934053678       21.3362612321        5.9992577011 0.0141742186 0.0018280495 0.0055374735
  H        15.3472228570       21.9735218684        4.7877548732 0.0390997515 -0.0059037421 0.0111952214
  O        12.1782279147       16.6321468777       -2.0057619775 0.0148252862 0.0323518555 0.0245067219
  H        11.7652051428       17.2324299573       -2.6479279621 -0.0110781748 0.0064632077 -0.0125344466
  H        12.6822089687       17.3330377451       -1.3985147368 -0.0144351267 -0.0198571398 -0.0179013614
  O        -0.6882796180       10.6950452149       -7.6866658908 0.0171798631 0.0407741277 0.0721352569
  H        -0.4931618057       11.2436303187       -6.7352049825 -0.0070302041 -0.0331924862 -0.0710486800
  H         4.2283031731        5.1004517200        2.3406648864 0.0053750627 -0.0078248485 -0.0202726346
  O         4.5780657123       10.7006761307        9.1855070481 0.1038763727 0.0022465583 -0.0827858963
  H         4.2329253932       10.3998779050        8.3057217021 -0.0027370501 -0.0078055383 0.0023322398
  H         3.8865864453       10.5817024791        9.7557122325 -0.0872351779 -0.0074183104 0.0556992005
