288
NON_ORTHO 20.09 0.0 0.0 0.0 19.738 0.0 0.0 0.0 13.142 -2172813.7213515383
O 10.2613361226 1.1926618628 10.0905854618 -0.0046322361 0.0109275187 -0.0002192852
O 19.7377633597 19.5078080471 3.5878223771 -0.0003882611 -0.0065721733 0.0074011374
O 0.451487634 9.1014757485 10.6967688585 -0.023052679 0.0033454569 -0.0036987394
O 10.101038894 11.4893020169 4.102808425 -0.0211058227 -0.0122144423 -0.0101847972
O 9.6988528246 18.8875150896 4.2372478045 0.0242735787 0.0099618735 0.0009826448
O 0.2711941268 1.8731109923 10.8454636078 -0.0225621715 -0.012486233 -0.0031359454
O 20.2413270947 11.1356830744 3.2781400776 -0.0186037607 -0.0060245862 0.0140773557
O 10.324156638 9.8883657528 10.0561942807 0.0318044056 0.0031365202 -0.0053142433
O 8.0273808109 1.7430093101 11.3823666215 0.0108577507 0.0130874892 -0.0127024839
O 1.934058153 19.1982422234 4.9176860296 -0.0397871781 -0.0059320928 -0.0311967426
O 18.2478184874 8.9954760925 9.4334836985 -0.0009773574 0.0105686904 0.0178306143
O 12.4648308903 11.9520840033 3.1268422818 0.0121104772 0.0051925579 -0.0277135028
O 11.8995051234 19.3563642236 2.8058391599 -0.0077296077 -0.0057426604 -0.003280595
O 18.083121884 1.6703402727 9.5313277047 0.0157568268 0.0210505651 0.0081826416
O 2.423207668 11.9079400249 4.3584262369 0.0135922704 -0.0082042606 0.0083368641
O 8.031761327 9.4263410764 11.0556019104 -0.0030424039 0.004017132 0.0027854419
O 8.7238585814 3.3066902785 9.1668045278 0.0045815361 -0.0311468147 0.0205601876
O 1.5271426013 17.6752585161 2.6191905876 -0.0116893464 0.0055048392 0.0216576444
O 18.4952388239 7.7271678036 11.7722022339 -0.0054606131 -0.0128268998 0.0011637679
O 11.5002849076 13.009950906 5.4471034649 -0.0122692507 0.0108654928 0.0039939742
O 12.1460940915 17.818043447 4.9977797122 -0.0025246552 -0.0023479528 -0.0126568551
O 18.6059226876 3.4464829179 11.7958282141 -0.0164805768 0.0081300191 -0.0029078057
O 1.585796246 13.1197895234 2.2399196307 -0.014688312 0.0366145242 -0.0191099938
O 8.8652390406 7.8655577528 8.9220520251 0.0014083014 0.006632146 0.0205223894
O 7.9667913023 0.5972841655 8.9425667126 -0.0060834774 0.0061569389 -0.0055378039
O 1.934626751 20.2794768917 2.3850814553 0.0004711689 0.0034021547 0.0075897754
O 18.4612880248 10.3587818782 11.900819754 -0.0106444874 0.0291919077 0.0126249605
O 12.3263709583 10.3791020067 5.2394367137 -0.0053021308 0.0084853889 -0.0047134809
O 11.7081535721 20.4795450441 5.2102674095 0.0016979582 -0.0028578131 0.0004483888
O 17.9096160439 0.7959253928 11.9976918953 0.0165491473 0.0237495066 -0.0098051753
O 2.4348895841 10.6078355377 1.9853707031 0.003952239 -0.0127592366 -0.00130293
O 8.2891437587 10.3553598879 8.4341940357 0.0128621636 -0.0033568868 0.0034587572
O 6.6021327004 1.0985634021 13.5189145984 0.0025443666 -0.0018920063 0.0025372866
O 3.472881827 19.6337053854 6.9122384255 -0.0038710226 0.0017945506 0.0115051662
O 16.9844907543 9.8533507022 7.2518319452 -0.0046869837 -0.0019914974 0.0107414746
O 13.6235872633 11.0650074116 0.7934920929 0.0026282998 -0.0017015911 0.0020767109
O 13.3002031189 19.3633196849 0.5228743382 0.0085642653 0.0142514212 0.0273810672
O 16.7310786031 1.07338694 7.2006803265 0.0057246621 0.009076884 0.0113758167
O 3.4032545253 11.1338253473 6.7187767342 0.0075530365 -0.0032672475 0.0184739499
O 6.6236784426 9.9177994582 13.2378963921 0.0093571122 -0.0020176253 -0.0176482553
O 6.5516291917 19.3005083253 11.2938697856 -0.0054995447 -0.0374744615 -0.0073655929
O 3.8713726238 1.4291537186 4.5833128306 -0.0089740262 0.0032855023 0.0211287519
O 16.7744549393 11.3396820269 9.6145986921 0.002162787 0.0195724514 -0.0045864032
O 13.8392934378 9.6672813468 3.0773463194 0.0076527426 -0.0074021016 -0.0083028707
O 13.9181238899 1.3898766496 2.7224292127 -0.000897143 -0.0098126735 -0.0024470013
O 16.4490982037 19.2671792195 9.4635277655 0.0119750044 0.0228949252 -0.0041406925
O 3.4121686665 9.4804407457 4.4938427461 0.0134297478 -0.0055343925 0.0138295501
O 6.2607762702 11.3866010619 10.9897250899 -0.0092232434 0.0038910744 -0.0120608928
O 5.3086558698 2.0431068657 11.5631633159 0.0310436222 -0.0063769173 -0.0005622131
O 4.53157444 18.5409966509 4.652227108 -0.0093877374 0.0027681304 -0.0020548171
O 15.4905626171 9.0706741273 9.3264544573 0.0033126737 -0.0025568846 0.0044045582
O 14.9975589205 12.247688233 2.8065929038 0.0346041095 -0.0040002163 0.0101732397
O 14.4543322767 18.5568276441 2.9781553991 0.0023752192 -0.0033771064 -0.0056640949
O 15.3464063972 1.980973885 9.292298808 0.0126402474 -0.0037952899 -0.0057692033
O 5.1199938692 11.7576924624 4.7625324232 0.0099169877 -0.0016759461 -0.0070417465
O 5.5555460858 8.6893463589 10.9392860439 0.0028779212 0.0223995538 0.0051578266
O 6.0224288154 2.7424013115 2.3481884786 -0.0041620535 0.0089657658 0.0031478214
O 4.0546565686 17.9692128082 8.8826603342 -0.004189099 -0.0159813816 0.0105563947
O 16.1203113276 8.3086082806 5.2626702167 -0.0015914057 0.0024402475 0.004586121
O 14.578796927 12.94185438 12.3523138158 -0.0011890554 0.0056187685 -0.0070398741
O 14.2219676868 17.8786563121 11.8235380322 -0.0019714656 0.0004392535 -0.0079305007
O 15.8998934758 2.9890626323 5.5075367488 0.0038343174 0.0255023688 -0.0146106011
O 4.339626179 12.7818422992 8.5986698182 -0.0010805597 0.0139036621 0.0061660019
O 6.3462934183 8.1102077834 2.0306692356 0.0085449777 0.0004410996 -0.013022858
O 3.9819588046 1.5560271698 1.0367620024 0.0042981106 -0.0052748575 -0.0243838478
O 5.9755747551 19.3031183899 7.4328456749 -0.008084669 -0.0005023573 0.0033037424
O 14.271570426 9.6589793675 6.8299359876 0.0075022693 -0.0083283222 0.0100561224
O 16.2676655306 11.0609575565 13.2729320244 -0.0498973373 -0.0187849143 0.0070620249
O 16.0411823361 19.1979573273 13.3856299601 0.0017081 -0.0054014219 -0.0004505488
O 14.0442668836 1.3569012401 6.7313453139 0.0277264335 -0.0032557652 -0.0057376982
O 5.9930415512 10.9607534273 7.5488898216 0.0217188503 0.0168830342 -0.0055737803
O 4.1964718007 8.9826914158 0.57275627 -0.0260835466 0.003311436 0.0212820866
O 5.5851449783 0.0480067301 2.466583379 0.0006710842 -0.0154348264 0.0113889864
O 4.3698366575 20.6655466969 9.2207423617 0.0089679274 -0.0173855523 -0.008348025
O 15.8071647091 11.0407328443 5.0975163405 -0.0006539685 -0.0283680354 0.0137313957
O 14.2365647532 10.4808664136 11.4506816874 0.0024881626 -0.0275880685 -0.0336941854
O 14.845101154 20.5578133451 11.6143594052 -0.0076892032 0.0049485737 0.0003609439
O 15.6586488617 0.2259467907 5.0048768682 0.001435466 -0.0082726635 -0.0167702123
O 4.1161917902 10.1863480606 9.1376507382 -0.0212902341 -0.0261336636 0.0296583598
O 5.4001671393 10.6567323219 2.2816258568 -0.0044596123 0.0041027944 0.0144434342
O 2.4368346391 3.2281496835 2.174925588 -0.0204245987 0.0295562255 0.0277378861
O 7.703568311 17.6432487696 8.6642827132 -0.0144531692 0.0180746729 -0.0162819708
O 12.7043501703 7.7134010809 5.6566035296 0.010000756 0.00422253 0.0110019767
O 17.7597626172 12.9794305227 12.4162862275 0.0167180646 0.0250233405 -0.0103079172
O 18.0473521802 17.8364236789 12.0999300629 -0.0003403169 -0.0072045856 -0.0074797448
O 12.4076174673 3.2973755054 5.8893991319 -0.00016115 -0.0093541547 -0.0083636231
O 7.7669570311 13.0416107222 8.4134762992 0.0008558713 0.0003248323 0.0084530696
O 2.377064285 7.6754184555 2.0872938437 0.0040029784 0.0041193835 -0.0009063074
O 1.4403701528 1.6787140536 13.2503554192 0.0060018398 -0.0029558477 -0.0080507202
O 8.6276403251 19.1735528595 6.6375934595 -0.0045704704 0.0068902583 -0.0033717939
O 11.5135594148 9.3956981635 7.4975539441 0.0183467385 -0.002061652 0.0138077616
O 18.7302122254 11.2617303726 1.1657091128 -0.0034194779 0.0003305889 0.0113294486
O 18.6265391302 19.2788050083 1.1590483346 0.0017624666 0.0042010964 -0.0145152965
O 11.6997540323 1.6093500306 7.7393879136 -0.0126038108 0.0005016385 -0.0196891957
O 8.226818987 11.7513804795 6.1495312762 0.0055827468 -0.005435728 -0.0053167319
O 1.5285956875 9.1609042261 13.1974791074 -0.015271322 -0.0062565565 -0.0088759816
O 2.8731591481 2.3299399201 11.0367870743 -0.0243229371 -0.0115510706 0.006884779
O 7.0878097109 18.7137879287 4.4888111905 0.0401557843 0.0142217831 0.0180430444
O 12.8138800496 9.0231850936 9.7967049566 0.0157365558 -0.0004409691 0.0039573678
O 17.7733859295 12.251860727 3.5793707241 0.0019568257 -0.0133797652 -0.0165725066
O 17.2269419887 18.5299545074 3.1977360194 -0.0181312132 0.0092781818 0.0132953523
O 12.7621192825 1.8259581831 10.1824675338 0.0284626444 0.0243452379 0.0171973858
O 7.551550789 11.7890413077 3.4375601964 0.010564508 0.0004020073 0.0259671254
O 2.9705659999 8.8040327332 11.0368491522 -0.0083629578 -0.0040436323 0.0046589097
O 2.0641381024 19.519741539 11.158029258 0.0039656174 0.0425120812 0.0022907758
O 8.0140177462 1.4650468266 4.7588038142 0.0119328739 -0.0494591654 0.0040608311
O 12.0683546232 11.599372675 8.861995374 0.0018235232 -0.0249892612 0.007196058
O 18.2013907667 9.5443980948 3.4009916243 -0.0028804825 0.0121653174 -0.0183488852
O 17.8808299985 1.5027925959 2.9765090067 0.0121295759 0.0242250603 -0.0024044894
O 12.0745971825 19.190790653 9.4560425452 0.0100168454 0.0362004043 -0.0025957276
O 8.2348024731 9.5334542462 4.4659032928 0.0044046837 -0.0041475699 0.0117337332
O 1.9114044239 11.2915792192 11.6454549531 0.0022517084 -0.0415149958 -0.0077636165
O 4.3443951488 3.6228384929 9.4462738154 0.0114852061 -0.0104424191 0.0100737703
O 5.8806054577 17.0751220325 2.905995849 0.0014687057 0.0038879512 -0.004687009
O 14.4809163543 7.7350890767 11.4123196296 0.0054872175 0.012906967 -0.0250590371
O 15.9751626675 13.6720632747 4.9340086386 -0.0008804801 -0.009386524 -0.0166727058
O 15.7169852418 17.2012455663 4.896703368 -0.0007177818 -0.0111523801 -0.0218125434
O 14.7244406391 3.5115010245 11.3336443441 -0.0167313655 -0.0116305449 0.0104444831
O 5.5109599332 13.3330414077 2.5597412748 -0.0016908201 0.0098149076 0.0066492943
O 4.2625500756 7.4034602478 9.2056097139 -0.0057122904 -0.0252100646 -0.0171838712
O 10.1234672293 17.4409446132 9.9379272911 0.0357064287 0.0165959627 -0.003776164
O 0.0787278631 2.9814046161 3.6734109223 0.0422543422 -0.0039973018 0.0096409843
O 19.8926252491 12.8630579329 10.728710599 -0.0183009003 0.0031867286 -0.0097763506
O 10.407991259 7.8942539484 4.2716602368 -0.0136506214 0.01769092 -0.0016429026
O 10.1539745461 3.2358974347 4.2243762164 0.0089440754 -0.0082898227 -0.0027324888
O 20.3683039365 17.6425856374 10.7734652935 -0.0036222749 -0.0044518468 -0.002322861
O 0.2196748812 7.8818746852 3.6116316027 -0.004277111 0.0012907083 0.001791155
O 10.0099265907 13.0205624535 10.0152529116 0.0162792754 -0.0106598056 -0.0019573722
O 8.0061827299 16.9371575794 11.2349444441 -0.0186535921 0.0042342854 0.0355695315
O 2.3332670247 3.7922900029 4.8534172883 0.0102403908 -0.0086479405 0.0103395827
O 17.4951518197 13.9601581195 9.9079647641 0.0155305209 -0.0057336504 0.007283966
O 12.5989656952 7.1726056974 3.0265373148 0.0034478168 0.0101575744 -0.0133919244
O 12.5930244165 3.7707686411 3.2002599017 0.0025739411 -0.0080899257 -0.001304137
O 18.0992864062 17.018270237 9.4328836062 0.0005676928 0.003077186 0.0097380255
O 2.5288732891 6.9265504513 4.7086703292 -0.0100212387 -0.0041838173 -0.0217613395
O 7.7022075006 13.6838951592 11.0864842246 -0.0229222596 -0.0082968102 0.0066758105
O 8.8378769316 15.3305161842 9.1656040967 -0.0083684515 -0.0248511163 0.0100371962
O 1.031056568 5.3831231445 3.0886260884 0.0032450769 0.0043167663 -0.0090343402
O 18.9311742503 15.3994128046 11.5662541987 0.005470435 -0.0036684032 -0.0035790642
O 11.3980030549 5.5173780503 4.80217713 -0.0021102776 -0.0072579446 0.0109426326
O 6.4607411376 17.6086290907 13.4677370544 0.0095770789 0.0133409878 -0.0318963395
O 3.8245300671 2.994807228 6.8493967456 0.014664361 0.0107872866 0.0198346242
O 16.4603588253 13.0059010574 7.4765992118 -0.012872302 -0.0011426965 0.0065242761
O 13.861163426 8.0725152026 0.7563625654 -0.0168652571 0.0106867455 0.0284913668
O 13.7269732661 3.2243150952 0.8306130305 0.0179135152 0.0187325858 -0.0282381916
O 16.6370273736 17.6828929175 7.2357854694 0.0193053074 0.0036265593 0.0348655148
O 3.9085687011 7.946051842 6.7329497452 0.0024999649 -0.0081625691 -0.0256671623
O 6.1860896685 12.8526450706 13.26166889 0.0134027227 0.0080223778 -0.0317670713
O 5.3559921784 16.9055276164 11.0525082387 0.0058312807 -8.89684e-05 0.0005950786
O 4.9632212487 3.950339458 4.5389834421 -0.0069048355 0.0010274773 0.0107286191
O 14.9232080293 13.3183339307 9.6638721285 -0.0356517896 0.0058392323 0.0117097766
O 15.1455452979 7.2740862941 2.9216276459 0.0254281374 -0.0013855183 0.0080753633
O 15.2711562127 3.7615833669 2.9943779035 -0.0052264318 -0.0007079956 -0.0049024141
O 15.3172569915 16.9591590881 9.4648720445 -0.0026657686 -0.0080595351 0.0079012406
O 5.278767238 7.5332891481 4.3987126766 0.001680821 -0.0085374977 -0.0001772032
O 4.8977235725 13.7031860592 11.1201317925 -0.0228175428 0.0094455708 -0.0191874906
O 5.3579107683 15.3973317887 0.7462576906 -0.0008021718 -0.0115288983 -0.0031488489
O 5.0242352251 5.4297247777 7.5006097061 -0.0181568082 -0.0159709536 -0.0035923792
O 15.3842679966 15.297492991 6.9542228478 -0.007257216 -0.0010262406 -0.0121624858
O 14.6440807063 5.6426682161 12.9659460497 0.0086006144 0.0101109238 0.0048736832
O 3.8148234274 17.6152631662 1.3214704527 0.0575798075 -0.0045165792 -0.0068689214
O 6.4784523552 3.277774059 7.6265629454 -0.0328968908 -0.0060265259 0.0037217773
O 13.8469474206 12.9888236557 6.5121937008 -0.0285185762 0.0093812901 0.0073012283
O 16.3942229224 7.823539243 13.5006007744 0.0010191185 -0.0040078063 -0.0088336892
O 16.3932360884 3.4675139774 13.4342566494 -0.0212725847 0.0029171223 0.000352837
O 13.9999795079 17.6028669181 6.9129613634 -0.0052307026 -0.0044740124 -0.0039899536
O 6.4610838261 7.638254551 7.6150036312 -0.0201014885 0.0009094999 0.0009663601
O 3.6614126687 13.3163667405 0.6442181093 -0.003093867 -0.0047608939 -0.0085705098
O 2.2480830966 15.4938630115 1.0622623403 -0.0106336451 -0.0080013341 0.0054307162
O 7.9629390055 5.480239841 7.9117835092 0.009166243 -0.0140824249 0.0027737923
O 12.5052515137 15.4810818793 5.9666136214 0.0009080184 -0.0462393559 0.0059963768
O 17.9320928743 5.6303224987 13.2226299875 0.0012340818 0.0029722547 0.0032059646
O 1.5220515879 17.9201420532 13.1928213802 -0.0059264592 -0.0061221104 0.0124808474
O 8.9409159381 3.3725453473 6.4860164174 0.0015740349 -0.005758364 0.0010474104
O 11.7727549234 14.0528449563 8.0604559049 -0.0077427865 -0.0166948386 0.0272056476
O 19.0104620222 7.9178845513 1.2193622521 -0.0091288185 0.0039408946 0.0329695168
O 19.0075249872 3.415711719 1.2621237726 -0.0167513938 -0.0013633199 0.0200647401
O 11.395909648 17.4600280284 7.573671689 0.0050052397 -0.0095989538 -0.0240850187
O 8.8076330346 7.5456166623 6.3672138178 0.0096543469 0.0043186125 -0.0018656897
O 1.2536663386 13.5399462883 12.679362899 -0.0051100233 0.0238544014 0.0350328508
O 2.748572149 16.9157982647 11.0299232616 -0.0062287178 -0.0053455668 0.009619219
O 7.6137837739 3.9201578023 4.1485595566 -0.0083360576 0.0118580817 -0.0022593169
O 12.4068279105 13.5343152398 10.8184674468 -0.0012570091 -0.0023421765 -0.0181624053
O 17.8284577653 6.8593936583 3.4907244028 -0.0439142353 0.0103981398 0.016362168
O 17.8151462271 4.0807143838 3.7978388425 -0.0022413235 -0.0106339912 -0.0072612224
O 12.6978360418 16.698708925 9.8614208735 -0.0020249212 -0.0146879709 0.0006341477
O 7.9390225369 6.9338005536 3.9645808946 -0.022164417 0.010681594 -0.0115978644
O 2.3094081497 13.4908070853 10.1738675089 -0.0050843821 0.0037200085 -0.0008440387
O 3.9830054945 15.3462421106 9.2768470392 0.0041703773 0.050181079 -0.0081944054
O 6.0074533239 5.5153783499 2.649598147 0.004481946 0.0071470279 0.0069201221
O 14.3918656309 15.35078797 11.3801406009 -0.0021808798 -0.0086316154 0.005207878
O 15.8513107896 5.6573730075 4.9852167812 0.0126903243 -0.013276581 -0.0210017348
Si 8.7379953532 1.7534529808 9.8780258839 -0.0076147849 0.0010456346 -0.0152730839
Si 1.2238161068 19.1686765733 3.3679766793 0.0222201939 -0.0200987045 -0.0028958738
Si 18.8975540433 9.1032947466 10.9986393119 0.0154768066 -0.015242839 -0.0273010787
Si 11.652158635 11.7015935824 4.486074118 0.0071319824 -0.0310950935 0.023317412
Si 11.3810604458 19.0769211896 4.3497042976 -0.0222539146 0.024176351 -0.0105836179
Si 18.6867414794 1.9775341845 11.0668244199 0.015332958 -0.0297707782 0.0016568131
Si 1.6101494377 11.6786362594 2.9323676942 0.0437663952 -0.0169004267 0.0224595369
Si 8.8395149139 9.3995835961 9.631704227 -0.0229003283 -0.0346848512 -0.0020239422
Si 6.6230808175 1.0678755185 11.8783558416 0.0002912935 0.0200310169 0.0291695566
Si 3.4417981093 19.6125516567 5.2775234827 0.0360520107 0.02760209 -0.0064282466
Si 16.9223219154 9.8388158197 8.9301687022 -0.0089327265 0.0075446741 -0.0150385937
Si 13.7801571204 11.2036185934 2.4252212101 -0.0137408325 0.0062032879 0.0073091483
Si 13.4141131124 19.5933133634 2.2055844936 0.0084322301 0.0124460335 -0.0063669377
Si 16.7180574929 1.0946405849 8.8586818931 -0.0363919414 -0.0143221965 0.0038209112
Si 3.6791674492 11.0408651692 5.1093615571 -0.038665657 -0.000326485 -0.021644584
Si 6.5096820455 9.8857810012 11.5937092324 0.0246092101 -0.0314377425 -0.0046518314
Si 5.4854484052 1.3779580069 1.5638607658 0.0365037573 0.0248411317 0.0017397768
Si 4.4793919087 19.3527172965 8.1868655594 0.0056005112 0.0345266485 -0.0179717699
Si 15.7712550905 9.6626273099 6.1465603473 0.0165348024 0.031825279 -0.0331671409
Si 14.7122231327 11.3368930821 12.7079359322 0.0045980488 0.02824659 0.0305205123
Si 14.5566542671 19.2869924919 12.5704141477 0.0216959962 -0.0147602426 0.022931234
Si 15.5859111103 1.5106668148 6.0774216826 -0.0003711238 -0.0423088364 -0.0045754237
Si 4.4478885814 11.2430557705 8.0314143138 0.0111678707 0.038404268 -0.0487628094
Si 5.6513103124 9.3800953457 1.2855197205 -0.0164170487 0.0144905541 0.0013033131
Si 2.4462295911 1.7857534618 1.4399413223 -0.0272433402 -0.0238260476 -0.0115781122
Si 7.5306933054 19.117114742 7.8749632738 0.0233048903 0.0008635715 0.0325004379
Si 12.7714104402 9.2185820602 6.350804313 -0.0460813123 0.015920476 -0.0092570893
Si 17.777462006 11.4546454505 12.982432848 0.0377977801 -0.0130716284 -0.0191446697
Si 17.6661478411 19.2125267822 12.9432483644 -0.0110089953 -0.0099300476 -0.0002360906
Si 12.5303690327 1.6726025625 6.2851015933 -0.0270275946 0.0200016834 0.0212163247
Si 7.5683208512 11.57896466 7.6817243609 -0.0258839045 -0.0003239055 -0.0272623062
Si 2.6198173663 9.1266327166 1.2643146873 0.0267978041 -0.006944554 0.0002139707
Si 1.6244469321 1.3729601132 11.6087824555 0.0245186728 0.0072422898 -0.0007704084
Si 8.4219146236 19.5616003206 5.037175268 -0.0247188429 -0.0025978525 -0.0135652128
Si 11.6711733035 9.9681251252 9.0952554634 0.0010140302 0.0016852338 -0.0229598201
Si 18.6963206273 11.0659066256 2.8123575132 -0.0158523793 -0.0039059092 0.0090083
Si 18.3392476793 19.6651390654 2.7345165346 -0.0057123629 -0.0061403423 0.0004275641
Si 11.6600961104 1.080498037 9.2495999407 0.0123232086 -0.0350144439 0.0233763492
Si 8.6149220897 11.1327462806 4.6406677853 -0.047278342 0.0225563154 -0.0160808929
Si 1.6884348493 9.5959747025 11.6246878204 0.0083210731 0.0257627062 0.0048551658
Si 4.3301978422 2.1559067697 10.3022195503 -0.0457309315 0.018746887 -0.019670116
Si 5.7827252071 18.6182006724 3.5668735798 -0.0161591471 -0.0171099164 0.0140658065
Si 14.3294033776 9.1127801886 10.4765618613 -0.0181884647 -0.0052501095 0.0126373976
Si 16.1793970025 12.2596217144 4.0329944485 -0.0204228908 0.005070602 0.0182821351
Si 15.7463396112 18.583375307 4.0160404539 0.0158402934 0.0299857491 0.0039857281
Si 14.3567376527 2.0099120047 10.6143578344 -0.005382595 0.0242031309 -0.0087517046
Si 5.8980473556 11.8913840925 3.2905938046 0.0156086544 -0.0042368491 -0.0155364819
Si 4.1897782271 8.8041134886 9.9853156638 0.019719727 -0.001926156 0.0270974981
Si 8.6326055343 16.8643925121 9.7530053021 0.0166725502 -0.0184273479 -0.0265158762
Si 1.5037677971 3.8490625899 3.463832799 -0.0044066213 -0.0107109478 -0.023920764
Si 18.5988345266 13.8089206468 11.2050121654 -0.0221437924 0.0016799586 -0.0197816323
Si 11.7822550191 7.0392771863 4.4468423352 0.0035888717 0.0164129395 -0.0028425818
Si 11.6420220464 3.9236569762 4.5593093974 -0.0061812367 -0.0105500751 -0.0165418594
Si 18.8791217911 16.9561980296 10.9193363501 -0.0138340507 0.0076044948 0.0182092926
Si 1.5386208309 6.9321609453 3.314665927 0.0145170072 0.0158485341 0.0183139958
Si 8.6011180099 13.7468100337 9.6971999823 -0.0323579975 0.0276140155 -0.0183818023
Si 6.6349435586 17.6765291688 11.7689948882 -0.0176154935 0.0105261188 0.0228194598
Si 3.7886930006 3.0207581628 5.2077785839 -0.0086394426 -0.0212313714 -0.0145917386
Si 16.4189835193 12.9678071406 9.1428107853 0.0208255901 -0.0267570721 -0.004324042
Si 13.8361762646 8.1329568276 2.4380665569 -0.0136271967 -0.0142169541 -0.0095429661
Si 13.8821302543 3.0171158818 2.4529532187 -0.0101572006 0.0062737877 0.0144583864
Si 16.6713724126 17.7322390421 8.9325400406 -0.0005358414 -0.005176287 -0.0130953894
Si 3.8020179485 7.9219265031 5.0358434817 0.0037916839 0.0228869481 0.0113324449
Si 6.2416170489 12.9224423184 11.5706283358 0.0336622343 0.0059684297 0.0194453941
Si 5.3859942193 16.8849159979 1.3537962512 -0.0215740188 0.0315560701 -0.003674239
Si 4.8397901844 3.8252628143 7.9133820446 0.0397976017 -0.0001135273 -0.0307948468
Si 15.2973000209 13.6983883856 6.4424263662 0.0550870335 0.023247895 0.0109268399
Si 14.9158596252 7.3060847364 12.9085789757 -0.0018563708 -0.02590545 0.0173578918
Si 14.8457617242 4.0097727076 12.9429520836 0.0048840583 -0.0175848335 -0.0055746342
Si 15.4527392141 16.8833847471 6.4611680886 -0.0175362134 -0.0085090565 0.0150044259
Si 4.8789739618 7.0307768222 7.7125118938 0.0257592093 0.0238329998 0.0112608361
Si 5.1802779616 13.815730253 0.9948132559 0.0022859191 -0.041058585 0.0278505369
Si 2.2914767047 17.1013095023 1.2770782035 -0.0257825668 0.0159330569 0.0052454998
Si 8.0344331058 3.8240471951 7.7672964448 -0.0179326141 0.0246202248 0.0069028249
Si 12.3528477969 13.8287548533 6.5274083209 0.0273589105 0.0464663433 0.009652329
Si 17.951093724 7.2804557004 13.2651464104 0.0072291812 -0.0110421487 -0.0095734113
Si 17.9312717133 3.9861850675 13.2239143567 0.0199294571 0.0013831825 0.005678525
Si 12.5171981574 17.0644022993 6.3862934317 -0.0033248447 -0.0073016654 0.0273831247
Si 8.0202539551 7.0940424304 7.7355731705 -0.0061298878 0.011213667 -0.0032418271
Si 2.1386633352 13.8602872499 0.8840621233 0.0072548828 0.0039161988 -0.0009165553
Si 1.6821765201 18.0184701405 11.5930274178 -0.0267094401 -0.0160017602 -0.0149969655
Si 8.6741777744 2.9373109745 4.912151744 0.0154752366 0.0311202775 -0.005845589
Si 11.5564421362 13.032400971 9.4582077298 0.0117838302 0.0264759823 -0.0150433834
Si 18.8103495995 8.05849537 2.943927076 0.0088852181 -0.0013377069 -0.0212056859
Si 18.7755031438 2.9846923627 2.9047641952 -0.0664924576 -0.0008955088 -0.0222628854
Si 11.6009988612 17.6844177974 9.1804423881 -0.0336370106 -0.0036966704 0.0092318378
Si 8.8612238126 8.0609255598 4.8219143687 -0.0071533332 -0.0331240592 -0.012051851
Si 1.3440519889 12.7608297859 11.2771171152 0.003608609 -0.0025680861 -0.0130286689
Si 4.0408376012 16.835821862 10.0744469701 0.0179320779 -0.0183640647 -0.0186797094
Si 6.1405401986 4.0351581335 3.4013506231 0.0133352701 -0.0155186388 -0.0150453895
Si 14.0287490713 13.7906209751 11.029325273 0.0252685484 -0.0088620138 -0.0001366367
Si 16.2131605131 7.0970293611 4.1706892224 0.0209615039 -0.0192710958 -0.0059944811
Si 16.221046795 4.1350684311 4.2895441717 0.0008162139 -0.0077056068 0.0190923571
Si 14.1350291344 16.7786786207 10.6216473721 0.0222527049 0.0047951676 -0.0059507471
Si 6.4094670657 7.0550442508 3.2456934213 0.0074187482 -0.0255627546 0.0271528732
Si 3.8543938843 13.8429903077 9.7757157765 0.0196216733 -0.0431762568 0.0131107296
