288
NON_ORTHO 20.090 0.000 0.000 0.000 19.738 0.000 0.000 0.000 13.142 -1.28710541405E+00 -1.86295273382E+00 -1.15861929597E+00 5.22302942693E-02 1.93684251178E-01 -2.78182064905E-01 -2172831.044512198
  O        10.3295859019        2.1235748031       10.8476342993 -0.0002817839 0.0019001685 0.0078251869
  O        19.6990135778       19.8166763577        3.9892634098 0.0013938571 0.0013602074 -0.0139042312
  O         0.4573153267       10.1213371768       10.9986143533 0.0156305988 0.0144273285 0.0135080621
  O         9.9804032590       11.7482320751        4.7285441770 -0.0141524557 -0.0103722695 0.0081575538
  O         9.6168332034       19.7163249446        4.6664241888 0.0089312477 0.0095576094 0.0016443314
  O         0.0881123669        1.8633500851       11.1670944329 -0.0226529577 -0.0110848739 -0.0042969197
  O        19.9549226308       11.4287542506        3.7053617409 0.0184435539 0.0131631607 -0.0055434880
  O        10.4930800368        9.8221590613       10.6066475802 -0.0022797402 0.0124510230 0.0023735492
  O         7.7429436444        2.7773349485       11.5321221251 -0.0103932603 -0.0112691599 0.0273181714
  O         1.7874059771       20.2842630072        5.1407768508 0.0200912321 -0.0019597929 0.0244811960
  O        18.1893291355        9.9307680045        9.8461979163 0.0040277436 0.0014117839 0.0227258946
  O        12.1952870824       12.3242621803        3.5580810317 0.0274636196 -0.0001290909 -0.0175118420
  O        12.0206024352       20.0606484425        3.4252595958 -0.0072936500 0.0095175418 0.0191678619
  O        17.9479792776        2.8441926024       10.1816355375 0.0031805031 -0.0000380895 0.0111679456
  O         2.2417633793       12.3911408673        4.9062256005 -0.0166859638 -0.0049621149 -0.0123743045
  O         8.1708916871        9.7845277759       11.8693656522 -0.0214060972 0.0124358625 -0.0007903392
  O         8.8000841451        3.6153034733        9.3013796596 -0.0035832946 0.0080151878 -0.0082336872
  O         1.6995433224       18.4219988621        3.0686164825 -0.0105864319 0.0175706451 0.0120907827
  O        18.7357433494        8.2964702152       11.9886478690 0.0109120118 0.0000855213 -0.0192804105
  O        11.4554097707       13.6195959357        5.8459224601 -0.0008322787 0.0140339233 0.0040037751
  O        11.7440829816       18.2321397894        5.3780324510 0.0040861712 0.0153375723 0.0093556668
  O        19.0250374910        3.7010127326       12.5949741840 0.0173204375 -0.0087246541 -0.0114145801
  O         1.2326879103       13.6994992560        2.7813154284 0.0006570820 -0.0069359235 -0.0014135649
  O         8.7786101979        8.1618376213        9.7255791142 -0.0334494032 -0.0088896572 -0.0278636818
  O         8.2112498391        0.9413080395        9.6382336688 0.0169254146 0.0256112424 0.0191174769
  O         1.6599862403       21.1357307955        2.6614362568 0.0062745206 0.0160401715 -0.0139096546
  O        18.4162304631       10.8452888151       12.4804677751 -0.0133733235 0.0211451531 0.0032806272
  O        12.3861273301       11.1723927268        6.0696964315 -0.0135360071 0.0294570116 -0.0263388996
  O        11.6135710426       20.8638529523        6.0890121173 0.0146372073 0.0248763052 0.0183495797
  O        17.7409397369        1.3139278041       12.4195608201 -0.0001906390 -0.0072850736 0.0117078379
  O         2.2784520491       11.2457048203        2.4653399653 0.0117024547 -0.0045842282 0.0013986537
  O         8.3106079452       10.7455961740        9.1674527624 -0.0077062601 0.0091767544 0.0077229784
  O         6.6368529545        1.9481092119       13.9820733062 0.0072035478 -0.0011812792 -0.0173732818
  O         3.5818783640       20.3462190768        7.1287247693 0.0087978456 0.0010401238 0.0162454631
  O        16.5991783110       10.1651192194        7.8913053940 0.0028021368 0.0125376700 0.0244695368
  O        13.4787982556       11.7491813848        1.2629782957 0.0083476463 0.0016447562 -0.0081738641
  O        13.6369215414       20.4151557149        1.4317270732 0.0137071983 -0.0027878471 -0.0366769135
  O        16.8510140219        2.1409974843        7.7400392981 -0.0007474428 -0.0039310562 -0.0206832869
  O         3.4105164823       11.5817640675        7.1505981814 0.0067501756 -0.0020317609 0.0246171231
  O         6.4287465660       10.3194717359       13.7580264119 -0.0097027235 -0.0010260425 0.0030739681
  O         6.5693580025       20.0750386120       11.7278337990 0.0060710618 0.0103339383 0.0019318473
  O         3.7836053985        2.2945567844        4.8706759079 0.0041208692 0.0062050880 0.0168508576
  O        16.2791950263       11.9007069342       10.2061023927 0.0073131331 0.0058835754 -0.0078489378
  O        13.6765074380       10.1432468275        3.5279403233 0.0017161527 -0.0222018408 0.0006495975
  O        14.0203274414        2.2786468799        3.5944125484 -0.0067980792 -0.0307891495 -0.0023237797
  O        16.7245633603       20.2071196817        9.8787391835 0.0110515959 0.0078793894 0.0009885007
  O         3.8280230370       10.1171382057        4.9658475260 -0.0025344732 0.0138665357 -0.0074419274
  O         6.2720136234       11.8431025306       11.5910951856 0.0023844762 0.0091529241 -0.0032100165
  O         5.1156614772        2.5680024460       11.8638591215 0.0040035614 0.0023088069 0.0156557804
  O         4.1659084648       19.4093571818        4.5745927165 0.0329249555 -0.0050327602 0.0021290943
  O        15.6110339899        9.3248938086       10.3272474928 -0.0046295471 -0.0135764916 0.0061508470
  O        14.9925512148       12.5384069680        3.4089084081 -0.0144149687 -0.0118213785 -0.0109020447
  O        14.5016450649       19.3152347642        3.8044136427 -0.0007703063 -0.0030276501 0.0091387726
  O        15.2026474844        2.6225375573        9.7707229102 0.0241858961 -0.0054215538 -0.0180554378
  O         4.9534778708       12.5463638388        5.2427078095 0.0045777279 0.0050596572 -0.0079235534
  O         5.6236514151        9.2990089699       11.1965515308 -0.0012797171 0.0001143366 -0.0012812261
  O         5.4861687837        3.7006503546        2.4777757064 0.0077470390 0.0032537092 0.0100640788
  O         3.8178821307       18.6906767806        9.1548153660 -0.0036255815 -0.0194477709 0.0122266781
  O        16.4583316448        8.7922500388        5.6360086402 -0.0129609937 0.0294672694 0.0195530514
  O        14.5258267691       13.4817461033       12.5926077997 -0.0072160527 0.0097842621 -0.0065418408
  O        13.6325137604       18.7283586126       12.4682342391 0.0104684988 -0.0045870079 -0.0008111202
  O        15.5933446791        3.6635176049        6.1425047801 -0.0029956612 0.0139265555 -0.0108653036
  O         4.0935316073       13.4407349933        8.8761908421 -0.0074901018 0.0116690906 0.0163221841
  O         6.1402460393        8.8984454898        2.7654966665 0.0269378238 -0.0133958933 0.0117088601
  O         3.8940943720        2.0542229124        1.2679838734 0.0201250858 -0.0136026142 0.0008266478
  O         6.1032946527       19.7943592021        8.1933049581 -0.0203647901 0.0081330523 -0.0099252188
  O        14.1196068203        9.6031522428        7.1352281819 0.0302036130 -0.0098226808 0.0053361750
  O        16.1042987867       11.7435511143       13.7021406002 0.0069922497 0.0038660410 -0.0169139184
  O        15.9882468726       19.3653706807       13.7608490283 0.0287747383 0.0045742861 0.0028330258
  O        14.0282766034        1.8476153955        7.3072066099 0.0272862279 -0.0040322976 -0.0234229673
  O         6.0128234298       11.7967913557        8.1148762021 -0.0108998051 -0.0075651150 0.0014769273
  O         4.0296355806        9.5614322285        1.3907205307 0.0109394641 0.0165206631 0.0010668800
  O         5.8691638973        1.0871999285        3.1011665721 0.0000097204 -0.0002211486 -0.0016548414
  O         4.2848359694       21.3210539385        9.5110909188 0.0007493147 -0.0014803911 -0.0027278933
  O        15.4273985742       11.3441961365        5.7351725970 0.0108257890 0.0198478632 -0.0112702493
  O        14.2104235629       10.6925566599       12.0747014144 -0.0111107210 0.0162212198 0.0052173187
  O        14.8372220926       21.0571782579       12.1579277370 0.0006284377 0.0585118282 -0.0432205632
  O        16.0250464375        1.1044330651        5.4636305456 0.0052271231 -0.0213515776 -0.0082887032
  O         3.9009439179       10.8276840190        9.6247341963 0.0035523473 -0.0225074404 0.0127918908
  O         5.5944740232       11.4896071224        2.9138846828 -0.0050613699 -0.0032740473 -0.0087458466
  O         2.3530260627        4.0607069093        2.3102736133 -0.0199486182 -0.0103878482 0.0200196852
  O         7.8873756344       18.1192774874        9.0768708537 -0.0156195550 0.0114751768 -0.0314740562
  O        12.1203130655        8.4110841298        5.8673562061 -0.0145307913 -0.0067707048 -0.0066218417
  O        17.9105155216       13.6656532364       12.6576390973 -0.0101878913 -0.0067724785 -0.0018708948
  O        17.9518936059       18.3288119581       12.3395662985 0.0072682962 0.0061538461 0.0101611802
  O        12.3897353860        3.8443870512        6.2648731052 0.0047963422 -0.0255684124 0.0274354406
  O         7.8328116752       13.5308521379        9.2695289401 -0.0117290812 -0.0299899428 -0.0265985017
  O         1.9683722652        8.4661626987        2.4573968476 -0.0173249503 -0.0172639009 0.0287646744
  O         1.3321469119        2.3548879267       13.4909114028 0.0055356836 0.0039069137 0.0049713331
  O         8.5977019263       20.0207317347        7.1001854758 -0.0110652249 -0.0013687968 -0.0030275098
  O        11.5185738992        9.7396811429        8.0307652388 -0.0136625411 0.0077413358 0.0309646936
  O        18.5579793750       12.2297433925        1.5301722825 0.0034000621 0.0072413023 0.0101344047
  O        18.6284605153       19.6646059948        1.4678027583 0.0073581066 0.0106712709 0.0030062086
  O        11.7303373749        2.3392421228        8.4571543720 -0.0030995599 0.0027869172 0.0048366477
  O         8.3999473214       12.2788007021        6.9572063946 0.0050152876 0.0015126605 -0.0062004336
  O         1.4373986950        9.9568997001       13.5208072463 -0.0029081037 0.0088204723 -0.0025770671
  O         2.4775682223        2.8391839855       11.1462536991 0.0099779351 0.0057397905 -0.0017441019
  O         6.9718749526       19.4007625658        5.0330996075 -0.0099866910 -0.0108229450 0.0065433640
  O        12.9851197371        9.2588481533       10.0724902356 0.0339666912 -0.0054105076 0.0274353530
  O        17.5808181681       12.4297635938        4.1505074774 -0.0238386553 0.0062503209 0.0154346688
  O        17.0203174125       19.5982268248        3.4314212599 0.0064907486 -0.0033501909 0.0105633912
  O        12.8057798829        2.8061089565       10.9938819818 -0.0015609136 -0.0021144060 -0.0040234114
  O         7.4948324050       12.7133143449        4.4451339849 0.0564148333 -0.0158422922 0.0203522221
  O         2.9292970794        9.4512668887       11.5471244499 0.0012253155 0.0116641029 0.0017855395
  O         2.2235382937       20.0162919177       11.8540942683 -0.0124711142 -0.0032831096 -0.0051892767
  O         7.9343485005        2.1065252184        5.1366074451 -0.0085851438 0.0026430318 -0.0018928072
  O        12.0554832592       11.8609701604        9.7464857907 0.0163733629 -0.0348561265 -0.0084811416
  O        17.7017835069       10.0144537155        2.8317922145 0.0165845629 0.0337038543 0.0126365562
  O        18.3468322995        2.2023631691        3.0408539717 0.0000308520 0.0133292760 0.0055227610
  O        12.1193569929       20.1032911465       10.1898369236 0.0111263533 -0.0455915983 -0.0027529729
  O         7.7543861489       10.1812015103        5.5157714217 0.0039850075 -0.0027919029 -0.0097225901
  O         2.1821580807       12.1470607918       12.0211275382 0.0018537877 0.0006925625 -0.0010090614
  O         4.2919305453        4.2261787994        9.8670023157 0.0044545804 -0.0168055151 -0.0032170729
  O         5.8493473947       17.9961886183        3.0875986852 0.0016739679 0.0170597897 0.0196457470
  O        14.0470270491        7.9237251059       12.1564108168 0.0018306622 0.0204048850 -0.0240793292
  O        15.6768055434       13.9673145955        5.4659376363 0.0071167014 0.0011302575 -0.0061587601
  O        16.0130410601       17.9304011393        5.3858085419 -0.0048459665 -0.0017019411 0.0300722853
  O        14.8348733522        4.0740118288       11.9156016230 -0.0029862548 0.0053887168 0.0052966918
  O         5.6570892629       14.1899128038        3.1590260310 0.0031090018 -0.0168866587 0.0092483551
  O         4.0703243627        7.9678986310        9.6396665671 0.0098742977 -0.0074884409 -0.0319116961
  O        10.2059110822       18.1366549537       10.3372538599 -0.0065282193 0.0038477231 0.0115949149
  O         0.2431394638        3.7730869606        4.1530112975 -0.0146336514 -0.0093156081 0.0040557267
  O        20.0573851414       13.4170841124       11.0647619827 -0.0003413614 0.0062480696 0.0000301484
  O         9.6770960665        8.5124685356        4.4669311819 -0.0014639447 -0.0007466928 0.0074997624
  O        10.2206406426        3.4671187767        4.7372640292 0.0059712189 0.0174843386 -0.0053064879
  O        20.3132643466       18.2843802376       11.0917322943 0.0207728651 0.0131732607 -0.0210071617
  O        -0.3849602763        8.3615897651        3.9370372619 -0.0142543647 0.0074642696 0.0065749580
  O        10.0809394603       13.2246452140       10.8460062014 -0.0193297686 0.0199196375 -0.0121388876
  O         8.0396322247       17.6520285470       11.7370832512 -0.0125511073 0.0069571718 -0.0004913100
  O         2.6144977077        4.8479301491        5.0181110570 -0.0116708176 -0.0146592367 -0.0181913924
  O        17.7660623556       14.2713213943       10.0534977314 0.0044540307 0.0043521515 -0.0154142868
  O        11.9541119536        8.0371090579        3.3240232950 -0.0132690760 -0.0157832880 -0.0108526791
  O        12.5575930028        4.5091589866        3.7580172428 -0.0026745128 0.0034667577 -0.0224187462
  O        17.9949133158       17.7090690470        9.8394173801 0.0051163731 -0.0019677090 -0.0138915169
  O         2.0003862929        8.1828363035        5.1642026817 -0.0415812107 -0.0138710184 -0.0076563887
  O         7.7353008892       14.1819602390       11.7604465153 -0.0271524291 -0.0061201383 0.0443426423
  O         8.9140820047       15.7454174286       10.0010722548 0.0079489256 0.0040042624 0.0019629699
  O         1.0102896915        6.2190399963        3.3230243895 0.0025858858 -0.0007832187 0.0098446028
  O        19.0025749441       15.9222715397       11.6873060811 0.0094237677 0.0191816059 -0.0054854015
  O        10.9545985574        6.1203380287        5.1885484452 0.0023580967 -0.0215510392 -0.0015270634
  O         6.2099209943       18.4080799255       13.6852081782 0.0187760240 -0.0002681074 -0.0238326953
  O         3.7580768423        3.7755978640        7.1680500367 0.0210761265 0.0070125863 0.0131388373
  O        16.3101645632       13.4126202922        7.9712114156 -0.0012249162 0.0008073704 0.0085716545
  O        13.9863997867        8.4531864657        1.5640167279 0.0181450861 -0.0150670763 -0.0248813694
  O        13.9980864932        3.7911007337        1.3327903509 -0.0131895195 -0.0036315474 0.0244996880
  O        16.2348947655       18.5668847397        7.9397306328 0.0072569306 -0.0132160595 0.0127457987
  O         3.8756652934        8.3114519454        6.9959867272 0.0116734411 -0.0025746391 0.0410570431
  O         6.1599500865       13.5466784607       13.7988283124 -0.0027242615 -0.0024091194 -0.0243511087
  O         5.4105799858       17.8090729039       11.1677717087 -0.0295616696 -0.0203748075 -0.0180597410
  O         5.2552227826        4.5963857769        5.0281487423 0.0146863897 0.0029169229 0.0046409588
  O        15.0178400923       14.3381156979       10.0829949168 0.0112176063 -0.0035643087 0.0090487921
  O        14.4851037773        7.7264591835        4.1826932699 -0.0315695312 -0.0018584583 -0.0161348286
  O        15.1854938876        4.6813950985        3.6295502362 0.0061461325 -0.0119021785 -0.0082469393
  O        15.3926659401       17.9703584159       10.5419111928 0.0197490277 0.0023851668 -0.0155252030
  O         4.5597817970        7.6004284369        4.5380935688 -0.0170580563 0.0155178245 0.0109918682
  O         5.0681453563       14.1596441200       11.3172153705 -0.0025185179 0.0047931212 0.0106744275
  O         5.2204968731       16.0466906807        1.3766800872 -0.0031051191 -0.0316539552 -0.0128869668
  O         4.9444442252        6.0694145899        8.0942628736 0.0024490544 -0.0541750849 -0.0097150279
  O        15.6909081555       15.9189672217        7.2722442212 0.0003332282 -0.0239982843 0.0032456380
  O        15.1037466751        6.0763741015       13.8725568971 -0.0086116106 0.0087897205 -0.0038411515
  O         3.7020883594       18.2887579535        1.3460876570 0.0224362982 -0.0129470692 0.0020186645
  O         6.3668293806        3.7827743745        8.0284410295 0.0051071641 0.0016156395 0.0031889086
  O        13.6984693674       14.0488816126        7.3678475933 -0.0011900567 -0.0047231368 0.0015915383
  O        16.4633989499        8.2040909478       13.3723814871 -0.0166976018 0.0216622220 0.0014708272
  O        16.6605760132        3.9026625987       13.7479281445 -0.0055856390 -0.0034788734 0.0110489604
  O        13.8727624431       17.9550703339        7.1342284646 -0.0020474756 -0.0021533555 -0.0025909750
  O         6.4231339608        8.2647300935        7.9987300635 -0.0288026848 0.0070052962 0.0071146948
  O         3.5500078648       13.8716184037        1.4187717884 0.0091715398 0.0059550787 -0.0070996329
  O         2.0130682167       16.1216300339        1.9522514216 0.0050727549 -0.0105589788 -0.0025786525
  O         7.9478081568        6.0535861766        8.5432194818 -0.0067163487 -0.0168835729 -0.0052621689
  O        11.9075674536       16.0409992287        6.6505425748 0.0072861524 -0.0220213142 0.0148757426
  O        18.0132306238        6.0288575758       12.8648127774 0.0032746620 0.0024204391 0.0164700718
  O         1.2655164086       18.2183779932       13.5078700278 -0.0051926618 -0.0121239613 0.0092795548
  O         8.6683351708        4.1623573117        6.7176426176 -0.0024321143 0.0019052016 -0.0238633725
  O        11.2339944134       14.1410875554        8.5197178915 0.0077448875 -0.0029439621 -0.0040467271
  O        18.8140704227        7.9968647190        1.4846885932 0.0123267164 -0.0059797301 -0.0082259428
  O        18.8248180579        4.5274424144        2.0276673991 0.0039200139 0.0186954281 -0.0055079383
  O        11.4588409757       18.3601210285        8.1068126690 0.0007947871 0.0023720855 -0.0383543809
  O         8.8649563569        8.1200728793        6.9904461260 -0.0029400014 0.0030306787 0.0002941646
  O         1.1585649351       14.3501294442       13.2675508233 0.0069861521 -0.0026359031 0.0002195995
  O         2.6739146874       17.3422502937       11.2974549638 0.0154557631 0.0022789600 -0.0048321381
  O         7.7258792384        4.4606785559        4.0211536887 0.0026949064 0.0008904338 0.0002551395
  O        12.4670501950       14.2386530806       10.9665018324 0.0021070556 0.0000805028 -0.0008670673
  O        17.0469807853        7.5533488105        3.3406108350 0.0123192177 -0.0042536104 -0.0035392684
  O        17.7848074268        4.3595912616        4.6684272865 0.0164130653 -0.0107981098 -0.0171677931
  O        12.7427560226       17.4826616315       10.1950139814 0.0078055119 0.0013630906 0.0011062905
  O         7.2395061184        7.6095436626        4.9345065150 -0.0139394635 -0.0013660335 -0.0051813124
  O         2.4270354529       14.4841084150       10.8502681448 0.0052396425 0.0071685521 -0.0075669592
  O         4.2094564260       15.9970319997        9.5151578176 -0.0050197814 0.0014702501 0.0090107503
  O         6.1115124047        6.2167895910        2.9789585774 -0.0017717063 0.0109280805 -0.0063487764
  O        14.0729373380       16.1020791152       12.0085481911 0.0078083345 -0.0220693940 0.0015469490
  O        16.1204677035        6.1875082412        5.4712284322 0.0055594375 0.0011973890 0.0218051677
 Si         8.8038426858        2.3462287923       10.3560562115 -0.0219472876 -0.0035780305 -0.0251109291
 Si         1.2502867750       19.9358530845        3.6404526382 -0.0192684164 -0.0328591079 0.0145874024
 Si        18.9694159915        9.7731914624       11.3447099617 -0.0037188482 0.0193619896 -0.0200416146
 Si        11.5546339992       12.2117276714        5.0462564319 -0.0061179284 -0.0269740038 0.0103308513
 Si        11.2941110758       19.7920376042        4.9262631810 -0.0194645107 -0.0348719758 -0.0375046063
 Si        18.6866859761        2.4114781308       11.6572288800 -0.0017446377 -0.0044118417 -0.0286766627
 Si         1.3957640606       12.1664795642        3.4711778065 -0.0254987620 0.0166359380 0.0058381453
 Si         8.8532467520        9.6761049578       10.3796230945 0.0158751997 0.0092822351 -0.0256557625
 Si         6.5511465114        1.8881565901       12.3413560774 0.0059052401 -0.0036586433 -0.0288653489
 Si         3.4025642143       20.5071773340        5.5401202346 -0.0235330221 0.0161246895 -0.0346247214
 Si        16.6073592020       10.3619484586        9.5634213934 0.0200933313 0.0027674711 -0.0191525980
 Si        13.6372375328       11.6520562695        2.9147209740 -0.0071251325 0.0250566765 0.0049103174
 Si        13.6076748806       20.4375557711        3.0490979465 -0.0219119236 0.0225802434 0.0049122801
 Si        16.7612795197        2.0707795310        9.3353797796 -0.0236723624 -0.0232816844 0.0482887915
 Si         3.5793114237       11.6678537979        5.5321945248 0.0160391306 0.0029467489 0.0007294092
 Si         6.5638814509       10.2887424021       12.1036657558 0.0182166062 0.0019008440 0.0304588566
 Si         5.4311228771        2.1336473544        1.9354220116 -0.0119459423 0.0245367560 0.0040757682
 Si         4.4803698710       20.0559385700        8.4875565263 0.0116082273 -0.0120545118 0.0120875623
 Si        15.6563231507        9.9899598642        6.5767090542 -0.0060469675 -0.0469795774 -0.0011612123
 Si        14.5251911238       11.9342624156       13.0903700227 0.0204137064 -0.0126322184 0.0458224850
 Si        14.5506971072       19.9397139157       13.2231218193 -0.0371976871 -0.0483129428 0.0357736724
 Si        15.6018344081        2.1089756690        6.6256507602 -0.0293176708 0.0181672412 0.0349363611
 Si         4.3888805382       11.8650633557        8.4945823640 0.0049992710 0.0188637287 -0.0351728485
 Si         5.4742350663       10.1312888001        2.0096712444 0.0039892929 0.0186416257 -0.0499384764
 Si         2.3681350284        2.4946693772        1.6398878529 -0.0205705049 0.0181950449 0.0192464108
 Si         7.7220647657       19.6836640822        8.4768584487 -0.0043792412 -0.0156808191 -0.0120743285
 Si        12.5452831546        9.7174641530        6.7736336216 -0.0072288242 -0.0142506993 -0.0184556738
 Si        17.6916169485       12.1357631315       13.2717946905 -0.0104524217 -0.0194273852 0.0046456411
 Si        17.5993917388       19.6494628672       13.3304094895 -0.0114459921 -0.0218250002 -0.0243144583
 Si        12.4576165130        2.2676430242        6.9496324338 -0.0031805430 0.0204495723 0.0194923281
 Si         7.5975269614       12.1055395613        8.4006726128 0.0234458087 -0.0070477211 0.0139484542
 Si         2.4373270920        9.8024007742        1.6824267255 -0.0093917852 0.0059990913 -0.0027454153
 Si         1.4975802988        1.8071983942       11.9536122784 0.0208131370 -0.0170594158 0.0001789896
 Si         8.2649583098       20.2894517470        5.4640238125 0.0369216876 -0.0189335485 0.0169595245
 Si        11.7560542175       10.2033453210        9.6234280451 -0.0205499866 0.0099489318 -0.0111268311
 Si        18.4212956401       11.5780491093        3.0214448241 0.0092773440 -0.0308855506 0.0085999770
 Si        18.4554350026       20.2936573490        3.0169216720 -0.0049290152 -0.0052919893 0.0015957783
 Si        11.7732251351        1.9198935462       10.0855343452 -0.0122443893 0.0290006294 -0.0255491669
 Si         8.4675562659       11.6720737636        5.3937536058 -0.0059349778 0.0320614175 0.0092592379
 Si         1.7589145040       10.5741824773       12.0124852416 -0.0148525106 -0.0593906144 -0.0169717263
 Si         4.0354591870        2.7318962284       10.6712308268 0.0041762846 0.0230226207 -0.0335600909
 Si         5.7559717229       19.4400978843        3.9552240251 -0.0295019531 -0.0267125710 -0.0074159435
 Si        14.2175793130        9.3159994951       11.2193466041 -0.0155433483 -0.0200381096 -0.0270926399
 Si        15.9989031508       12.5209955561        4.7308965873 -0.0022803076 0.0011225847 -0.0247150064
 Si        15.9181956988       19.4102215341        4.6457405146 0.0063895101 -0.0139879794 -0.0182762783
 Si        14.4251327718        2.6373106156       11.1867108413 0.0040061600 0.0060175387 0.0272690058
 Si         6.0039733550       12.7318450663        3.9455613419 -0.0625681357 0.0083965789 -0.0139528373
 Si         4.1410793531        9.3710450845       10.4393327038 -0.0077448850 0.0259085820 0.0217685516
 Si         8.7396055316       17.3837636820       10.2241634566 0.0226193181 -0.0135910347 0.0296543138
 Si         1.5082699942        4.6982113848        3.7247902663 0.0566470153 0.0035032295 -0.0177367676
 Si        18.6980454736       14.3390539285       11.3771258680 0.0132292404 0.0049261883 0.0150196389
 Si        11.0965074988        7.7050545859        4.7176739277 0.0319785430 0.0127850324 0.0158180639
 Si        11.5272231688        4.5139805266        5.0577077941 -0.0187530298 0.0096429210 -0.0280670728
 Si        18.9179988271       17.5474951329       11.2023223720 -0.0659345964 -0.0208664972 0.0316668244
 Si         1.1531950218        7.8069860833        3.7859108286 0.0117510471 0.0010733755 -0.0284402349
 Si         8.7108518997       14.1624664510       10.5009000405 0.0211476941 0.0107224202 -0.0263421334
 Si         6.6080509435       18.4545556499       12.0415070858 0.0036787098 0.0043991539 0.0311430425
 Si         3.8908276939        3.8587118759        5.5099864905 -0.0327892580 -0.0102074511 0.0012213870
 Si        16.4218604671       13.4940296993        9.6436999176 -0.0500012326 -0.0170354436 -0.0165427803
 Si        13.4966555719        8.5063838715        3.1165489361 0.0166679594 0.0270579189 0.0130356271
 Si        13.8804401901        3.8208122353        3.0192734483 0.0111309840 0.0047138036 0.0071826504
 Si        16.6203406397       18.5999012268        9.5749365892 -0.0200085791 0.0006308857 -0.0002292776
 Si         3.5171238722        8.5933254211        5.4634431153 0.0500283805 -0.0204128208 -0.0319385457
 Si         6.2979292598       13.4209231210       12.1295108776 0.0085299307 -0.0014235832 -0.0001103199
 Si         5.2589723342       17.6315159195        1.6094277843 -0.0208465444 0.0259902328 -0.0072893388
 Si         4.8605929267        4.4046382525        8.3106565674 -0.0224863247 0.0122528529 0.0013160854
 Si        15.2841874494       14.2981597834        7.0166379550 0.0113605070 0.0184644994 0.0073974994
 Si        14.9160252198        7.6826266756       13.5195540369 -0.0088111422 -0.0158978574 0.0299341929
 Si        15.1236951738        4.4801357970       13.4847887846 0.0108552258 -0.0007668130 -0.0032714745
 Si        15.4434677173       17.4758744702        6.9765193383 0.0088216798 0.0379739039 -0.0361074728
 Si         4.8553115075        7.6331663299        8.1656375295 -0.0103388791 0.0373491652 0.0058091249
 Si         5.1302312486       14.4102339761        1.6010518729 -0.0054991457 0.0069206447 0.0219925010
 Si         2.1789069757       17.7344749720        1.6704068283 -0.0006743310 0.0036466116 -0.0018054877
 Si         7.9168187245        4.4314230920        8.1571952962 0.0055098076 0.0037438375 0.0022363314
 Si        12.1054268057       14.4201916123        7.1134976360 -0.0098581730 0.0322013572 0.0027788059
 Si        17.9851385837        7.6402981553       13.2598843661 0.0092054313 -0.0172333515 0.0011279805
 Si        18.1727521019        4.5725437531       13.6395377072 -0.0256385839 0.0126528371 0.0185351009
 Si        12.2850829155       17.6384203497        6.8393459989 -0.0187614859 -0.0012325403 -0.0058321681
 Si         7.9276393320        7.6901383154        8.3038625519 0.0384290077 -0.0112528668 0.0262936215
 Si         2.0216160191       14.5168197880        1.5513579816 -0.0107512246 -0.0007209619 0.0112516445
 Si         1.6102817639       18.4362912926       11.9186567517 0.0241457891 0.0287347705 0.0124980873
 Si         8.6043604285        3.6031237608        5.1119216485 0.0103818432 0.0071336620 0.0268305344
 Si        11.4949211770       13.3539739458        9.9677726593 -0.0061681828 0.0172495656 0.0062489548
 Si        18.3621464399        8.5110347389        2.9678192628 -0.0069297044 -0.0048522273 0.0024354025
 Si        18.8132162549        3.7671051361        3.4917662262 -0.0210163855 -0.0283352415 -0.0056457321
 Si        11.6290245628       18.6018111804        9.6918608193 0.0033710300 -0.0139842125 0.0185990124
 Si         8.3690431943        8.6452434009        5.4966460529 0.0093326852 -0.0083621118 0.0003313799
 Si         1.4333372379       13.6149225085       11.8050991882 -0.0009654529 -0.0022145134 0.0072953118
 Si         4.0205512273       17.4541875061       10.2959210526 0.0131725804 0.0250531458 -0.0088833271
 Si         6.1201386757        4.7176794328        3.6275703429 0.0095862646 -0.0100841876 -0.0105125866
 Si        14.0161484176       14.5373168957       11.4306207295 0.0055581304 0.0110486396 -0.0143475911
 Si        16.0193240025        7.5685045299        4.6198457431 0.0137728179 0.0082185464 0.0184090424
 Si        16.1906965780        4.6433237199        4.9701041037 -0.0173352639 0.0013908665 -0.0127047420
 Si        13.9845307862       17.5784652099       11.2787753747 -0.0057397282 0.0208953465 0.0190975916
 Si         6.0295079245        7.6682392874        3.7882269578 -0.0132855982 -0.0289521393 0.0174705145
 Si         3.9317909893       14.4813645681       10.1661309206 0.0091596874 -0.0044057785 -0.0169485111